Version 4
SymbolType CELL
LINE Normal -64 32 -80 32
LINE Normal -16 16 -32 16
LINE Normal -16 32 -32 32
LINE Normal -35 17 -60 31
CIRCLE Normal -60 34 -64 30
CIRCLE Normal -32 18 -36 14
CIRCLE Normal -32 34 -36 30
WINDOW ATTR_INSTNAME -37 -11 Left 1
WINDOW ATTR_VALUE -31 2 Left 0
SYMATTR Value in=0
SYMATTR SpiceModel sw_spdt
SYMATTR Prefix X
SYMATTR Description SPDT switch
SYMATTR ModelFile switches.lib
PIN -80 32 NONE 8
PINATTR PinName 1
PINATTR SpiceOrder 1
PIN -16 16 NONE 8
PINATTR PinName 2
PINATTR SpiceOrder 2
PIN -16 32 NONE 8
PINATTR PinName 3
PINATTR SpiceOrder 3
